Begin options

Iterations limit 1000000
Major iterations limit 20000
Minor iterations limit 50000

Major feasibility tolerance 0.01
Major optimality tolerance 0.0001
Minor feasibility tolerance 0.01
Hessian limited memory
Hessian updates    5
Derivative option 1
End options