Begin options

Iterations limit 1000000
Major iterations limit 20000
Minor iterations limit 50000

Major feasibility tolerance 1e-3
Major optimality tolerance 1e-2
Minor feasibility tolerance 1e-3
Hessian limited memory
Hessian updates    5
Derivative option 1
End options